Adsorption isotherm of Hydrogen on Zn(BDC)(BPY) 0.5
DOI: 10.1002/adfm.201101479
Adsorbate Hydrogen: InChIKey UFHFLCQGNIYNRP-UHFFFAOYSA-N
Temperature: 77 K
pressure (bar)	uptake (wt%)
0.00856871	0.00856871
0.0257061	0.2784
0.0492701	0.4096
0.0814027	0.5248
0.107109	0.6016
0.124246	0.6432
0.154237	0.688
0.179943	0.72
0.231355	0.7712
0.278483	0.816
0.332038	0.8544
0.38345	0.88
0.43272	0.9056
0.479848	0.9312
0.533402	0.9568
0.584814	0.976
0.634085	0.9952
0.687639	1.0176
0.734767	1.0336
0.786179	1.0464
0.837591	1.0656
0.889004	1.0784
0.912568	1.088
0.938274	1.0912
0.961838	1.104
0.989686	1.1168
1.00897	1.1232
